/batch
/config,noeldb,1     ! force off writing results to database
*get,_wallstrt,active,,time,wall
! ANSYS input file written by Workbench version 2026 R1
! File used for geometry attach: D:\S3 MTA\2- Conception Avance & Element Fini\Element fini\TP\TP2\TP2_Poutre_3D_files\dp0\SYS-1\DM\SYS-1.scdocx
/title,TP2_Poutre_3D--Static Structural (B5)
! ****** Begin Custom Load Command Snippet ******
/COM, ACT Extensions:
/COM,     LSDYNA, 2026.1
/COM,     5f463412-bd3e-484b-87e7-cbc0a665e474, wbex
/COM,     ANSYSMotion, 2026.1
/COM,     20180725-3f81-49eb-9f31-41364844c769, wbex
! ****** End   Custom Load Command Snippet ******
*DIM,_wb_ProjectScratch_dir,string,248
_wb_ProjectScratch_dir(1) = 'D:\S3 MTA\2- Conception Avance & Element Fini\Element fini\TP\TP2\_ProjectScratch\Scr0561\'
*DIM,_wb_SolverFiles_dir,string,248
_wb_SolverFiles_dir(1) = 'D:\S3 MTA\2- Conception Avance & Element Fini\Element fini\TP\TP2\TP2_Poutre_3D_files\dp0\SYS-1\MECH\'
*DIM,_wb_userfiles_dir,string,248
_wb_userfiles_dir(1) = 'D:\S3 MTA\2- Conception Avance & Element Fini\Element fini\TP\TP2\TP2_Poutre_3D_files\user_files\'
/com,--- Data in consistent MKS units. See Solving Units in the help system for more information.
/units,MKS
/nopr
/wb,file,start              !  signify a WB generated input file
/prep7
! Turn off shape checking because checks already performed inside WB mesher.
! See help system for more information.
SHPP,OFF,,NOWARN
/nolist
etcon,set             ! allow ANSYS to choose best KEYOP's for 180x elements, resets any applicable keyopt to MAPDL defaults
/com,*********** Send User Defined Coordinate System(s) ***********
csys,0
/com,*********** Nodes for the whole assembly ***********
nblock,3,,683
(1i9,3e20.9e3)
        1    -3.000000000E-02     9.500000000E-01    -3.000000000E-02
        2    -3.000000000E-02     9.000000000E-01    -3.000000000E-02
        3    -3.000000000E-02     8.500000000E-01    -3.000000000E-02
        4    -3.000000000E-02     8.000000000E-01    -3.000000000E-02
        5    -3.000000000E-02     7.500000000E-01    -3.000000000E-02
        6    -3.000000000E-02     7.000000000E-01    -3.000000000E-02
        7    -3.000000000E-02     6.500000000E-01    -3.000000000E-02
        8    -3.000000000E-02     6.000000000E-01    -3.000000000E-02
        9    -3.000000000E-02     5.500000000E-01    -3.000000000E-02
       10    -3.000000000E-02     5.000000000E-01    -3.000000000E-02
       11    -3.000000000E-02     4.500000000E-01    -3.000000000E-02
       12    -3.000000000E-02     4.000000000E-01    -3.000000000E-02
       13    -3.000000000E-02     3.500000000E-01    -3.000000000E-02
       14    -3.000000000E-02     3.000000000E-01    -3.000000000E-02
       15    -3.000000000E-02     2.500000000E-01    -3.000000000E-02
       16    -3.000000000E-02     2.000000000E-01    -3.000000000E-02
       17    -3.000000000E-02     1.500000000E-01    -3.000000000E-02
       18    -3.000000000E-02     1.000000000E-01    -3.000000000E-02
       19    -3.000000000E-02     5.000000000E-02    -3.000000000E-02
       20    -3.000000000E-02     5.000000000E-02    -6.000000000E-02
! ... 602 like lines cut
/com,*********** Nodes for all Remote Points ***********
nblock,3
(1i9,3e20.9e3)
      622    -2.999999933E-02     1.000000000E+00    -2.999999933E-02
      623    -2.999999933E-02     0.000000000E+00    -2.999999933E-02
-1
/wb,elem,start            !  set before creation of elements
/com,*********** Elements for Body 1 'SYS-1\Solid' ***********
et,1,186
keyo,1,2,1          ! set full integration on SOLID186
MAT,1 $ TYPE,1 $ REAL,1 $ SECNUM,1 $ ESYS,0    ! ELEMNODES = 20
eblock,21,COMPACT,,80
(21i9)
        1        1      108      111      152       38      109      110      189      193      502      508      195      341      504      507      343      191      501      506      568
        2        1      152      111      108       39       58       96       97      195      508      502      193      345      403      480      347      192      404      481      483
        3        1      114      112      108       38      151      113      109      194      510      503      193      342      511      505      341      191      513      509      501
        4        1      108      112      114       39       97       98       77      193      503      510      194      347      482      442      346      192      483      484      443
        5        1      152      153        2       38      189      188       37      195      567      200      190      343      621      340      338      191      568      570      197
        6        1        2      153      152       39       40       59       58      190      200      567      195      344      349      402      345      192      198      406      404
        7        1        2      115      114       38       37      150      151      190      199      512      194      338      339      566      342      191      197      515      513
        8        1      114      115        2       39       77       78       40      194      512      199      190      346      441      350      344      192      443      445      198
        9        2      153      154        3       37      188      187       36      200      569      205      196      340      620      337      335      197      570      572      202
       10        2        3      154      153       40       41       60       59      196      205      569      200      348      352      405      349      198      203      408      406
       11        2        3      116      115       37       36      149      150      196      204      514      199      335      336      565      339      197      202      517      515
       12        2      115      116        3       40       78       79       41      199      514      204      196      350      444      353      348      198      445      447      203
       13        3      154      155        4       36      187      186       35      205      571      210      201      337      619      334      332      202      572      574      207
       14        3        4      155      154       41       42       61       60      201      210      571      205      351      355      407      352      203      208      410      408
       15        3        4      117      116       36       35      148      149      201      209      516      204      332      333      564      336      202      207      519      517
       16        3      116      117        4       41       79       80       42      204      516      209      201      353      446      356      351      203      447      449      208
       17        4      155      156        5       35      186      185       34      210      573      215      206      334      618      331      329      207      574      576      212
       18        4        5      156      155       42       43       62       61      206      215      573      210      354      358      409      355      208      213      412      410
       19        4        5      118      117       35       34      147      148      206      214      518      209      329      330      563      333      207      212      521      519
       20        4      117      118        5       42       80       81       43      209      518      214      206      356      448      359      354      208      449      451      213
! ... 61 like lines cut
secnum,1    ! reset the section ID to default
! Material Id = {271A3225-14E9-484C-94E6-6A6820A97DD9}
/wb,elem,end               !  done creating elements
toffst,273.15,      ! Temperature offset from absolute zero
/com,*********** Set Reference Temperature ***********
tref,22.
/wb,mat,start              !  starting to send materials
/com,*********** Send Materials ***********
MP,EX,1,210000000000,	! Pa
MP,NUXY,1,0.3,
MP,UVID,1,7dcd5e3c-0fcb-4bd6-a7ce-a0dc0ba8268a

/wb,mat,end                !  done sending materials
!************************* Model Summary ********************
! SYS-1\Solid,	Acier_TP2_210000MPa,	matid,	1
!************************* End Model Summary ********************
! get the diagonal of the bounding box. Needed later for other things
*get,_xmin,node,,mnloc,x
*get,_ymin,node,,mnloc,y
*get,_zmin,node,,mnloc,z
*get,_xmax,node,,mxloc,x
*get,_ymax,node,,mxloc,y
*get,_zmax,node,,mxloc,z
_ASMDIAG=(_xmax-_xmin)*(_xmax-_xmin)+(_ymax-_ymin)*(_ymax-_ymin)+(_zmax-_zmin)*(_zmax-_zmin)
_ASMDIAG=SQRT(_ASMDIAG)
/wb,contact,start          !  starting to send contact
/wb,contact,end            !  done creating contacts
/golist
/wb,load,start             !  starting to send loads
/com,*********** Create Remote Point "Internal Remote Point" ***********
! -------- Remote Point Used by "Remote Displacement" --------
*set,tid,3
*set,cid,2
et,cid,174
et,tid,170
keyo,tid,2,1               ! Don't fix the pilot node
keyo,tid,4,111111
keyo,cid,12,5              ! Bonded Contact 
keyo,cid,4,2               ! Rigid CERIG style load
keyo,cid,2,2               ! MPC style contact
MAT,2 $ TYPE,2 $ REAL,2 $ SECNUM,2 $ ESYS,0    ! ELEMNODES = 8
eblock,21,COMPACT,,4
(21i9)
      251      111      108       97       96      502      483      480      481
      252      110      109      108      111      504      501      502      506
      253      108      112       98       97      503      484      482      483
      254      109      113      112      108      505      509      503      501
-1
secnum,1    ! reset the section ID to default
*set,_npilot,622
_npilot30=_npilot
type,tid
mat ,cid
real,cid
tshape,pilo
en,255,_npilot
tshape
/com,*********** Create Remote Point "Internal Remote Point 2" ***********
! -------- Remote Point Used by "Remote Displacement 2" --------
*set,tid,5
*set,cid,4
et,cid,174
et,tid,170
keyo,tid,2,1               ! Don't fix the pilot node
keyo,tid,4,111111
keyo,cid,12,5              ! Bonded Contact 
keyo,cid,4,2               ! Rigid CERIG style load
keyo,cid,2,2               ! MPC style contact
MAT,4 $ TYPE,4 $ REAL,4 $ SECNUM,4 $ ESYS,0    ! ELEMNODES = 8
eblock,21,COMPACT,,4
(21i9)
      256      105      102      103      104      491      490      493      495
      257       99      100      102      105      485      488      491      486
      258      102      106      107      103      492      498      494      490
      259      100      101      106      102      487      489      492      488
-1
secnum,1    ! reset the section ID to default
*set,_npilot,623
_npilot33=_npilot
type,tid
mat ,cid
real,cid
tshape,pilo
en,260,_npilot
tshape
/com,*********** Define Force Using Surface Effect Elements ***********
local,12,0,0.,0.,0.,0.,0.,0.
csys,0
et,6,154
MAT,6 $ TYPE,6 $ REAL,6 $ SECNUM,6 $ ESYS,12    ! ELEMNODES = 8
eblock,21,COMPACT,,40
(21i9)
      261      111      152      189      110      508      568      507      506
      262       96       58      152      111      403      404      508      481
      263      152      153      188      189      567      570      621      568
      264       58       59      153      152      402      406      567      404
      265      153      154      187      188      569      572      620      570
      266       59       60      154      153      405      408      569      406
      267      154      155      186      187      571      574      619      572
      268       60       61      155      154      407      410      571      408
      269      155      156      185      186      573      576      618      574
      270       61       62      156      155      409      412      573      410
      271      156      157      184      185      575      578      617      576
      272       62       63      157      156      411      414      575      412
      273      157      158      183      184      577      580      616      578
      274       63       64      158      157      413      416      577      414
      275      158      159      182      183      579      582      615      580
      276       64       65      159      158      415      418      579      416
      277      159      160      181      182      581      584      614      582
      278       65       66      160      159      417      420      581      418
      279      160      161      180      181      583      586      613      584
      280       66       67      161      160      419      422      583      420
! ... 21 like lines cut
secnum,1    ! reset the section ID to default
esel,s,type,,6
keyop,6,2,1         ! Apply load in local coordinate system
keyop,6,7,1         ! Use original area so load is constant in large deformation
esel,all
/com,*********** Construct Remote Displacement ***********
/com,*********** Construct Remote Displacement ***********

/COM,*** Create a component for all remote displacements ***
CMBLOCK,REMOTEDISPALL,NODE,        2
(8i10)
       622       623

/gst,on,on
fini
*get,_numnode,node,0,count
*get,_numelem,elem,0,count
*get, _MAXELEMNUM, elem, 0, NUM, MAX
*get, _MAXNODENUM, node, 0, NUM, MAX
*get, _MAXELEMTYPE, etyp, 0, NUM, MAX
*get, _MAXREALCONST, rcon, 0, NUM, MAX
/go
/wb,load,end               !  done creating loads
/com,--- Number of total nodes = %_numnode%
/com,--- Number of contact elements = 48
/com,--- Number of spring elements = 0
/com,--- Number of bearing elements = 0
/com,--- Number of solid elements = 80
/com,--- Number of condensed parts = 0
/com,--- Number of total elements = %_numelem%
*get,_wallbsol,active,,time,wall
/com,****************************************************************************
/com,*************************    SOLUTION       ********************************
/com,****************************************************************************
/solu
antype,0                   ! static analysis
_thickRatio=  0     ! Ratio of thick parts in the model
eqsl,sparse,,,,,1
cntr,print,1               ! print out contact info and also make no initial contact an error
cncheck,dmp		!	Enable program controlled contact splitting for distributed memory parallel run
dmpoption,emat,no             ! Don't combine emat file for DANSYS
dmpoption,esav,no             ! Don't combine esav file for DANSYS
nldiag,cont,iter           ! print out contact info each equilibrium iteration
rescontrol,,none                 ! Do not keep any restart files
/com,****************************************************
/com,******************* SOLVE FOR LS 1 OF 1 ****************
esel,s,type,,6
nsle
sfe,all,1,pres,1,-91666.6666666735
sfe,all,2,pres,1,0.
sfe,all,3,pres,1,0.
nsel,all
esel,all
d,622,ux,0.
d,622,uy,0.
d,622,uz,0.
d,622,roty,0.
d,623,ux,0.
d,623,uz,0.
/nopr
/gopr
nsub,1,1,1
time,1.
outres,erase
outres,all,none
outres,nsol,all,
outres,rsol,all
outres,eangl,all
outres,etmp,all
outres,veng,all
outres,strs,all,
outres,epel,all,
outres,eppl,all,
outres,cont,all,
! *********** WB SOLVE COMMAND ***********
! check interactive state
*get,ANSINTER_,active,,int
*if,ANSINTER_,ne,0,then
/eof
*endif
solve
/com *************** Write FE CONNECTORS ********* 
CEWRITE,file,ce,,INTE
/com,****************************************************
/com,*************** FINISHED SOLVE FOR LS 1 *************
fini
*get,_wallasol,active,,time,wall
/nopr
*get,_numnode,node,0,count
*get,_numelem,elem,0,count
*get, _MAXELEMNUM, elem, 0, NUM, MAX
*get, _MAXNODENUM, node, 0, NUM, MAX,,,INTERNAL
*get, _MAXELEMTYPE, etyp, 0, NUM, MAX
*get, _MAXREALCONST, rcon, 0, NUM, MAX
*get,_NSOLTHREADS,active,0,ntfs
*get,_NSOLPROCESSES,active,0,npfs
/gopr
/post1
xmlo,ENCODING,ISO-8859-1
xmlo,parm
/xml,parm,xml
fini
/gopr
*get,_walldone,active,,time,wall
_preptime=(_wallbsol-_wallstrt)*3600
_solvtime=(_wallasol-_wallbsol)*3600
_posttime=(_walldone-_wallasol)*3600
_totaltim=(_walldone-_wallstrt)*3600
*get,_dlbratio,active,0,solu,dlbr
*get,_combtime,active,0,solu,comb
*get,_ssmode,active,0,solu,ssmm
*get,_ndofs,active,0,solu,ndof
*get,_sol_end_time,active,0,set,time
*if,_sol_end_time,eq,1.000000,then
/fclean				!clean distributed files
*endif
/com,--- Total number of nodes = %_numnode%
/com,--- Total number of elements = %_numelem%
/com,--- Element load balance ratio = %_dlbratio%
/com,--- Time to combine distributed files = %_combtime%
/com,--- Sparse memory mode = %_ssmode%
/com,--- Number of DOF = %_ndofs%
/wb,file,end               ! done with WB generated input
