/batch
/config,noeldb,1     ! force off writing results to database
*get,_wallstrt,active,,time,wall
! ANSYS input file written by Workbench version 2026 R1
! File used for geometry attach: D:\S3 MTA\2- Conception Avance & Element Fini\Element fini\TP\TP2\TP2_Poutre_3D_files\dp0\SYS\DM\SYS.scdocx
/title,TP2_Poutre_3D--Static Structural (A5)
! ****** Begin Custom Load Command Snippet ******
/COM, ACT Extensions:
/COM,     LSDYNA, 2026.1
/COM,     5f463412-bd3e-484b-87e7-cbc0a665e474, wbex
/COM,     ANSYSMotion, 2026.1
/COM,     20180725-3f81-49eb-9f31-41364844c769, wbex
! ****** End   Custom Load Command Snippet ******
*DIM,_wb_ProjectScratch_dir,string,248
_wb_ProjectScratch_dir(1) = 'D:\S3 MTA\2- Conception Avance & Element Fini\Element fini\TP\TP2\_ProjectScratch\ScrCA92\'
*DIM,_wb_SolverFiles_dir,string,248
_wb_SolverFiles_dir(1) = 'D:\S3 MTA\2- Conception Avance & Element Fini\Element fini\TP\TP2\TP2_Poutre_3D_files\dp0\SYS\MECH\'
*DIM,_wb_userfiles_dir,string,248
_wb_userfiles_dir(1) = 'D:\S3 MTA\2- Conception Avance & Element Fini\Element fini\TP\TP2\TP2_Poutre_3D_files\user_files\'
/com,--- Data in consistent MKS units. See Solving Units in the help system for more information.
/units,MKS
/nopr
/wb,file,start              !  signify a WB generated input file
/prep7
! Turn off shape checking because checks already performed inside WB mesher.
! See help system for more information.
SHPP,OFF,,NOWARN
/nolist
etcon,set             ! allow ANSYS to choose best KEYOP's for 180x elements, resets any applicable keyopt to MAPDL defaults
/com,*********** Send User Defined Coordinate System(s) ***********
csys,0
/com,*********** Nodes for the whole assembly ***********
nblock,3,,683
(1i9,3e20.9e3)
        1    -3.000000000E-02     9.500000000E-01    -3.100000000E-02
        2    -3.000000000E-02     9.000000000E-01    -3.100000000E-02
        3    -3.000000000E-02     8.500000000E-01    -3.100000000E-02
        4    -3.000000000E-02     8.000000000E-01    -3.100000000E-02
        5    -3.000000000E-02     7.500000000E-01    -3.100000000E-02
        6    -3.000000000E-02     7.000000000E-01    -3.100000000E-02
        7    -3.000000000E-02     6.500000000E-01    -3.100000000E-02
        8    -3.000000000E-02     6.000000000E-01    -3.100000000E-02
        9    -3.000000000E-02     5.500000000E-01    -3.100000000E-02
       10    -3.000000000E-02     5.000000000E-01    -3.100000000E-02
       11    -3.000000000E-02     4.500000000E-01    -3.100000000E-02
       12    -3.000000000E-02     4.000000000E-01    -3.100000000E-02
       13    -3.000000000E-02     3.500000000E-01    -3.100000000E-02
       14    -3.000000000E-02     3.000000000E-01    -3.100000000E-02
       15    -3.000000000E-02     2.500000000E-01    -3.100000000E-02
       16    -3.000000000E-02     2.000000000E-01    -3.100000000E-02
       17    -3.000000000E-02     1.500000000E-01    -3.100000000E-02
       18    -3.000000000E-02     1.000000000E-01    -3.100000000E-02
       19    -3.000000000E-02     5.000000000E-02    -3.100000000E-02
       20     0.000000000E+00     5.000000000E-02    -3.100000000E-02
! ... 602 like lines cut
/com,*********** Nodes for all Remote Points ***********
nblock,3
(1i9,3e20.9e3)
      622    -2.999999933E-02     1.000000000E+00    -3.100000037E-02
      623    -2.999999933E-02     0.000000000E+00    -3.100000037E-02
-1
/wb,elem,start            !  set before creation of elements
/com,*********** Elements for Body 1 'SYS\Solid' ***********
et,1,186
keyo,1,2,1          ! set full integration on SOLID186
MAT,1 $ TYPE,1 $ REAL,1 $ SECNUM,1 $ ESYS,0    ! ELEMNODES = 20
eblock,21,COMPACT,,80
(21i9)
        1        1      108      113      114       38      109      112      151      193      503      511      194      341      505      510      342      191      501      509      513
        2        1      114      113      108       39       77       96       97      194      511      503      193      346      442      480      347      192      443      481      483
        3        1      152      110      108       38      189      111      109      195      507      502      193      343      508      504      341      191      568      506      501
        4        1      108      110      152       39       97       98       58      193      502      507      195      347      482      403      345      192      483      484      404
        5        1      114      115        2       38      151      150       37      194      512      199      190      342      566      339      338      191      513      515      197
        6        1        2      115      114       39       40       78       77      190      199      512      194      344      350      441      346      192      198      445      443
        7        1        2      153      152       38       37      188      189      190      200      567      195      338      340      621      343      191      197      570      568
        8        1      152      153        2       39       58       59       40      195      567      200      190      345      402      349      344      192      404      406      198
        9        2      115      116        3       37      150      149       36      199      514      204      196      339      565      336      335      197      515      517      202
       10        2        3      116      115       40       41       79       78      196      204      514      199      348      353      444      350      198      203      447      445
       11        2        3      154      153       37       36      187      188      196      205      569      200      335      337      620      340      197      202      572      570
       12        2      153      154        3       40       59       60       41      200      569      205      196      349      405      352      348      198      406      408      203
       13        3      116      117        4       36      149      148       35      204      516      209      201      336      564      333      332      202      517      519      207
       14        3        4      117      116       41       42       80       79      201      209      516      204      351      356      446      353      203      208      449      447
       15        3        4      155      154       36       35      186      187      201      210      571      205      332      334      619      337      202      207      574      572
       16        3      154      155        4       41       60       61       42      205      571      210      201      352      407      355      351      203      408      410      208
       17        4      117      118        5       35      148      147       34      209      518      214      206      333      563      330      329      207      519      521      212
       18        4        5      118      117       42       43       81       80      206      214      518      209      354      359      448      356      208      213      451      449
       19        4        5      156      155       35       34      185      186      206      215      573      210      329      331      618      334      207      212      576      574
       20        4      155      156        5       42       61       62       43      210      573      215      206      355      409      358      354      208      410      412      213
! ... 61 like lines cut
secnum,1    ! reset the section ID to default
! Material Id = {50C200A2-46FA-404A-9F38-D6F1BAB47DEF}
/wb,elem,end               !  done creating elements
toffst,273.15,      ! Temperature offset from absolute zero
/com,*********** Set Reference Temperature ***********
tref,22.
/wb,mat,start              !  starting to send materials
/com,*********** Send Materials ***********
MP,EX,1,210000000000,	! Pa
MP,NUXY,1,0.3,
MP,UVID,1,1ee4c14d-f3f6-4af0-a0d5-96e0e2b34749

/wb,mat,end                !  done sending materials
!************************* Model Summary ********************
! SYS\Solid,	Acier_E210000,	matid,	1
!************************* End Model Summary ********************
! get the diagonal of the bounding box. Needed later for other things
*get,_xmin,node,,mnloc,x
*get,_ymin,node,,mnloc,y
*get,_zmin,node,,mnloc,z
*get,_xmax,node,,mxloc,x
*get,_ymax,node,,mxloc,y
*get,_zmax,node,,mxloc,z
_ASMDIAG=(_xmax-_xmin)*(_xmax-_xmin)+(_ymax-_ymin)*(_ymax-_ymin)+(_zmax-_zmin)*(_zmax-_zmin)
_ASMDIAG=SQRT(_ASMDIAG)
/wb,contact,start          !  starting to send contact
/wb,contact,end            !  done creating contacts
/golist
/wb,load,start             !  starting to send loads
/com,*********** Create Remote Point "Internal Remote Point" ***********
! -------- Remote Point Used by "Remote Displacement" --------
*set,tid,3
*set,cid,2
et,cid,174
et,tid,170
keyo,tid,2,1               ! Don't fix the pilot node
keyo,tid,4,111111
keyo,cid,12,5              ! Bonded Contact 
keyo,cid,4,2               ! Rigid CERIG style load
keyo,cid,2,2               ! MPC style contact
MAT,2 $ TYPE,2 $ REAL,2 $ SECNUM,2 $ ESYS,0    ! ELEMNODES = 8
eblock,21,COMPACT,,4
(21i9)
      251      109      108      113      112      501      503      509      505
      252      111      110      108      109      506      502      501      504
      253      108       97       96      113      483      480      481      503
      254      110       98       97      108      484      482      483      502
-1
secnum,1    ! reset the section ID to default
*set,_npilot,622
_npilot30=_npilot
type,tid
mat ,cid
real,cid
tshape,pilo
en,255,_npilot
tshape
/com,*********** Create Remote Point "Internal Remote Point 2" ***********
! -------- Remote Point Used by "Remote Displacement 2" --------
*set,tid,5
*set,cid,4
et,cid,174
et,tid,170
keyo,tid,2,1               ! Don't fix the pilot node
keyo,tid,4,111111
keyo,cid,12,5              ! Bonded Contact 
keyo,cid,4,2               ! Rigid CERIG style load
keyo,cid,2,2               ! MPC style contact
MAT,4 $ TYPE,4 $ REAL,4 $ SECNUM,4 $ ESYS,0    ! ELEMNODES = 8
eblock,21,COMPACT,,4
(21i9)
      256      103      102      104      105      490      491      495      493
      257      106      107      102      103      498      492      490      494
      258      102      100      101      104      488      487      489      491
      259      107       99      100      102      486      485      488      492
-1
secnum,1    ! reset the section ID to default
*set,_npilot,623
_npilot33=_npilot
type,tid
mat ,cid
real,cid
tshape,pilo
en,260,_npilot
tshape
/com,*********** Define Force Using Surface Effect Elements ***********
local,12,0,0.,0.,0.,0.,0.,0.
csys,0
et,6,154
MAT,6 $ TYPE,6 $ REAL,6 $ SECNUM,6 $ ESYS,12    ! ELEMNODES = 8
eblock,21,COMPACT,,40
(21i9)
      261      151       38      109      112      342      341      505      510
      262       38      189      111      109      343      508      504      341
      263      150       37       38      151      339      338      342      566
      264       37      188      189       38      340      621      343      338
      265      149       36       37      150      336      335      339      565
      266       36      187      188       37      337      620      340      335
      267      148       35       36      149      333      332      336      564
      268       35      186      187       36      334      619      337      332
      269      147       34       35      148      330      329      333      563
      270       34      185      186       35      331      618      334      329
      271      146       33       34      147      327      326      330      562
      272       33      184      185       34      328      617      331      326
      273      145       32       33      146      324      323      327      561
      274       32      183      184       33      325      616      328      323
      275      144       31       32      145      321      320      324      560
      276       31      182      183       32      322      615      325      320
      277      143       30       31      144      318      317      321      559
      278       30      181      182       31      319      614      322      317
      279      142       29       30      143      315      314      318      558
      280       29      180      181       30      316      613      319      314
! ... 21 like lines cut
secnum,1    ! reset the section ID to default
esel,s,type,,6
keyop,6,2,1         ! Apply load in local coordinate system
keyop,6,7,1         ! Use original area so load is constant in large deformation
esel,all
/com,*********** Construct Remote Displacement ***********
/com,*********** Construct Remote Displacement ***********

/COM,*** Create a component for all remote displacements ***
CMBLOCK,REMOTEDISPALL,NODE,        2
(8i10)
       622       623

/gst,on,on
fini
*get,_numnode,node,0,count
*get,_numelem,elem,0,count
*get, _MAXELEMNUM, elem, 0, NUM, MAX
*get, _MAXNODENUM, node, 0, NUM, MAX
*get, _MAXELEMTYPE, etyp, 0, NUM, MAX
*get, _MAXREALCONST, rcon, 0, NUM, MAX
/go
/wb,load,end               !  done creating loads
/com,--- Number of total nodes = %_numnode%
/com,--- Number of contact elements = 48
/com,--- Number of spring elements = 0
/com,--- Number of bearing elements = 0
/com,--- Number of solid elements = 80
/com,--- Number of condensed parts = 0
/com,--- Number of total elements = %_numelem%
*get,_wallbsol,active,,time,wall
/com,****************************************************************************
/com,*************************    SOLUTION       ********************************
/com,****************************************************************************
/solu
antype,0                   ! static analysis
_thickRatio=  0     ! Ratio of thick parts in the model
eqsl,sparse,,,,,1
cntr,print,1               ! print out contact info and also make no initial contact an error
cncheck,dmp		!	Enable program controlled contact splitting for distributed memory parallel run
dmpoption,emat,no             ! Don't combine emat file for DANSYS
dmpoption,esav,no             ! Don't combine esav file for DANSYS
nldiag,cont,iter           ! print out contact info each equilibrium iteration
rescontrol,,none                 ! Do not keep any restart files
/com,****************************************************
/com,******************* SOLVE FOR LS 1 OF 1 ****************
esel,s,type,,6
nsle
sfe,all,1,pres,1,-91666.6666666735
sfe,all,2,pres,1,0.
sfe,all,3,pres,1,0.
nsel,all
esel,all
d,622,ux,0.
d,622,uy,0.
d,622,uz,0.
d,623,ux,0.
d,623,uz,0.
/nopr
/gopr
nsub,1,1,1
time,1.
outres,erase
outres,all,none
outres,nsol,all,
outres,rsol,all
outres,eangl,all
outres,etmp,all
outres,veng,all
outres,strs,all,
outres,epel,all,
outres,eppl,all,
outres,cont,all,
! *********** WB SOLVE COMMAND ***********
! check interactive state
*get,ANSINTER_,active,,int
*if,ANSINTER_,ne,0,then
/eof
*endif
solve
/com *************** Write FE CONNECTORS ********* 
CEWRITE,file,ce,,INTE
/com,****************************************************
/com,*************** FINISHED SOLVE FOR LS 1 *************
fini
*get,_wallasol,active,,time,wall
/nopr
*get,_numnode,node,0,count
*get,_numelem,elem,0,count
*get, _MAXELEMNUM, elem, 0, NUM, MAX
*get, _MAXNODENUM, node, 0, NUM, MAX,,,INTERNAL
*get, _MAXELEMTYPE, etyp, 0, NUM, MAX
*get, _MAXREALCONST, rcon, 0, NUM, MAX
*get,_NSOLTHREADS,active,0,ntfs
*get,_NSOLPROCESSES,active,0,npfs
/gopr
/post1
xmlo,ENCODING,ISO-8859-1
xmlo,parm
/xml,parm,xml
fini
/gopr
*get,_walldone,active,,time,wall
_preptime=(_wallbsol-_wallstrt)*3600
_solvtime=(_wallasol-_wallbsol)*3600
_posttime=(_walldone-_wallasol)*3600
_totaltim=(_walldone-_wallstrt)*3600
*get,_dlbratio,active,0,solu,dlbr
*get,_combtime,active,0,solu,comb
*get,_ssmode,active,0,solu,ssmm
*get,_ndofs,active,0,solu,ndof
*get,_sol_end_time,active,0,set,time
*if,_sol_end_time,eq,1.000000,then
/fclean				!clean distributed files
*endif
/com,--- Total number of nodes = %_numnode%
/com,--- Total number of elements = %_numelem%
/com,--- Element load balance ratio = %_dlbratio%
/com,--- Time to combine distributed files = %_combtime%
/com,--- Sparse memory mode = %_ssmode%
/com,--- Number of DOF = %_ndofs%
/wb,file,end               ! done with WB generated input
