/batch
/config,noeldb,1     ! force off writing results to database
*get,_wallstrt,active,,time,wall
! ANSYS input file written by Workbench version 2026 R1
! File used for geometry attach: D:\S3 MTA\2- Conception Avance & Element Fini\Element fini\TP\TP1\TP1_Poutre_3D_files\dp0\SYS\DM\SYS.scdocx
/title,TP1_Poutre_3D--Static Structural (A5)
! ****** Begin Custom Load Command Snippet ******
/COM, ACT Extensions:
/COM,     LSDYNA, 2026.1
/COM,     5f463412-bd3e-484b-87e7-cbc0a665e474, wbex
/COM,     ANSYSMotion, 2026.1
/COM,     20180725-3f81-49eb-9f31-41364844c769, wbex
! ****** End   Custom Load Command Snippet ******
*DIM,_wb_ProjectScratch_dir,string,248
_wb_ProjectScratch_dir(1) = 'D:\S3 MTA\2- Conception Avance & Element Fini\Element fini\TP\TP1\_ProjectScratch\ScrFCD9\'
*DIM,_wb_SolverFiles_dir,string,248
_wb_SolverFiles_dir(1) = 'D:\S3 MTA\2- Conception Avance & Element Fini\Element fini\TP\TP1\TP1_Poutre_3D_files\dp0\SYS\MECH\'
*DIM,_wb_userfiles_dir,string,248
_wb_userfiles_dir(1) = 'D:\S3 MTA\2- Conception Avance & Element Fini\Element fini\TP\TP1\TP1_Poutre_3D_files\user_files\'
/com,--- Data in consistent MKS units. See Solving Units in the help system for more information.
/units,MKS
/nopr
/wb,file,start              !  signify a WB generated input file
/prep7
! Turn off shape checking because checks already performed inside WB mesher.
! See help system for more information.
SHPP,OFF,,NOWARN
/nolist
etcon,set             ! allow ANSYS to choose best KEYOP's for 180x elements, resets any applicable keyopt to MAPDL defaults
/com,*********** Send User Defined Coordinate System(s) ***********
csys,0
/com,*********** Nodes for the whole assembly ***********
nblock,3,,683
(1i9,3e20.9e3)
        1    -5.000000000E-02     9.500000000E-01    -5.000000000E-02
        2    -5.000000000E-02     9.000000000E-01    -5.000000000E-02
        3    -5.000000000E-02     8.500000000E-01    -5.000000000E-02
        4    -5.000000000E-02     8.000000000E-01    -5.000000000E-02
        5    -5.000000000E-02     7.500000000E-01    -5.000000000E-02
        6    -5.000000000E-02     7.000000000E-01    -5.000000000E-02
        7    -5.000000000E-02     6.500000000E-01    -5.000000000E-02
        8    -5.000000000E-02     6.000000000E-01    -5.000000000E-02
        9    -5.000000000E-02     5.500000000E-01    -5.000000000E-02
       10    -5.000000000E-02     5.000000000E-01    -5.000000000E-02
       11    -5.000000000E-02     4.500000000E-01    -5.000000000E-02
       12    -5.000000000E-02     4.000000000E-01    -5.000000000E-02
       13    -5.000000000E-02     3.500000000E-01    -5.000000000E-02
       14    -5.000000000E-02     3.000000000E-01    -5.000000000E-02
       15    -5.000000000E-02     2.500000000E-01    -5.000000000E-02
       16    -5.000000000E-02     2.000000000E-01    -5.000000000E-02
       17    -5.000000000E-02     1.500000000E-01    -5.000000000E-02
       18    -5.000000000E-02     1.000000000E-01    -5.000000000E-02
       19    -5.000000000E-02     5.000000000E-02    -5.000000000E-02
       20    -5.000000000E-02     5.000000000E-02    -1.000000000E-01
! ... 602 like lines cut
/wb,elem,start            !  set before creation of elements
/com,*********** Elements for Body 1 'SYS\Solid' ***********
et,1,186
keyo,1,2,1          ! set full integration on SOLID186
MAT,1 $ TYPE,1 $ REAL,1 $ SECNUM,1 $ ESYS,0    ! ELEMNODES = 20
eblock,21,COMPACT,,80
(21i9)
        1        1      108      111      152       38      109      110      189      193      502      508      195      341      504      507      343      191      501      506      568
        2        1      152      111      108       39       58       96       97      195      508      502      193      345      403      480      347      192      404      481      483
        3        1      114      112      108       38      151      113      109      194      510      503      193      342      511      505      341      191      513      509      501
        4        1      108      112      114       39       97       98       77      193      503      510      194      347      482      442      346      192      483      484      443
        5        1      152      153        2       38      189      188       37      195      567      200      190      343      621      340      338      191      568      570      197
        6        1        2      153      152       39       40       59       58      190      200      567      195      344      349      402      345      192      198      406      404
        7        1        2      115      114       38       37      150      151      190      199      512      194      338      339      566      342      191      197      515      513
        8        1      114      115        2       39       77       78       40      194      512      199      190      346      441      350      344      192      443      445      198
        9        2      153      154        3       37      188      187       36      200      569      205      196      340      620      337      335      197      570      572      202
       10        2        3      154      153       40       41       60       59      196      205      569      200      348      352      405      349      198      203      408      406
       11        2        3      116      115       37       36      149      150      196      204      514      199      335      336      565      339      197      202      517      515
       12        2      115      116        3       40       78       79       41      199      514      204      196      350      444      353      348      198      445      447      203
       13        3      154      155        4       36      187      186       35      205      571      210      201      337      619      334      332      202      572      574      207
       14        3        4      155      154       41       42       61       60      201      210      571      205      351      355      407      352      203      208      410      408
       15        3        4      117      116       36       35      148      149      201      209      516      204      332      333      564      336      202      207      519      517
       16        3      116      117        4       41       79       80       42      204      516      209      201      353      446      356      351      203      447      449      208
       17        4      155      156        5       35      186      185       34      210      573      215      206      334      618      331      329      207      574      576      212
       18        4        5      156      155       42       43       62       61      206      215      573      210      354      358      409      355      208      213      412      410
       19        4        5      118      117       35       34      147      148      206      214      518      209      329      330      563      333      207      212      521      519
       20        4      117      118        5       42       80       81       43      209      518      214      206      356      448      359      354      208      449      451      213
! ... 61 like lines cut
secnum,1    ! reset the section ID to default
! Material Id = {2CD08CC8-88D8-4ABE-8C9D-5710D655479D}
/wb,elem,end               !  done creating elements
toffst,273.15,      ! Temperature offset from absolute zero
/com,*********** Set Reference Temperature ***********
tref,22.
/wb,mat,start              !  starting to send materials
/com,*********** Send Materials ***********
MP,EX,1,8000000000,	! Pa
MP,NUXY,1,0.3,
MP,UVID,1,39c936b3-ac29-470e-b2d1-c035820d187b

/wb,mat,end                !  done sending materials
!************************* Model Summary ********************
! SYS\Solid,	Bois,	matid,	1
!************************* End Model Summary ********************
! get the diagonal of the bounding box. Needed later for other things
*get,_xmin,node,,mnloc,x
*get,_ymin,node,,mnloc,y
*get,_zmin,node,,mnloc,z
*get,_xmax,node,,mxloc,x
*get,_ymax,node,,mxloc,y
*get,_zmax,node,,mxloc,z
_ASMDIAG=(_xmax-_xmin)*(_xmax-_xmin)+(_ymax-_ymin)*(_ymax-_ymin)+(_zmax-_zmin)*(_zmax-_zmin)
_ASMDIAG=SQRT(_ASMDIAG)
/wb,contact,start          !  starting to send contact
/wb,contact,end            !  done creating contacts
/golist
/wb,load,start             !  starting to send loads
/com,*********** Fixed Supports ***********
CMBLOCK,_FIXEDSU,NODE,        9
(8i10)
        96       -98       108      -113       480      -484       501      -506
       509
cmsel,s,_FIXEDSU
d,all,all
nsel,all
/com,*********** Define Force Using Surface Effect Elements ***********
local,12,0,0.,0.,0.,0.,0.,0.
csys,0
et,2,154
MAT,2 $ TYPE,2 $ REAL,2 $ SECNUM,2 $ ESYS,12    ! ELEMNODES = 8
eblock,21,COMPACT,,4
(21i9)
      249      105      102      103      104      491      490      493      495
      250       99      100      102      105      485      488      491      486
      251      102      106      107      103      492      498      494      490
      252      100      101      106      102      487      489      492      488
-1
secnum,1    ! reset the section ID to default
esel,s,type,,2
keyop,2,2,1         ! Apply load in local coordinate system
keyop,2,7,1         ! Use original area so load is constant in large deformation
esel,all
/gst,on,on
fini
*get,_numnode,node,0,count
*get,_numelem,elem,0,count
*get, _MAXELEMNUM, elem, 0, NUM, MAX
*get, _MAXNODENUM, node, 0, NUM, MAX
*get, _MAXELEMTYPE, etyp, 0, NUM, MAX
*get, _MAXREALCONST, rcon, 0, NUM, MAX
/go
/wb,load,end               !  done creating loads
/com,--- Number of total nodes = %_numnode%
/com,--- Number of contact elements = 4
/com,--- Number of spring elements = 0
/com,--- Number of bearing elements = 0
/com,--- Number of solid elements = 80
/com,--- Number of condensed parts = 0
/com,--- Number of total elements = %_numelem%
*get,_wallbsol,active,,time,wall
/com,****************************************************************************
/com,*************************    SOLUTION       ********************************
/com,****************************************************************************
/solu
antype,0                   ! static analysis
_thickRatio=  0     ! Ratio of thick parts in the model
eqsl,sparse,,,,,1
cntr,print,1               ! print out contact info and also make no initial contact an error
cncheck,dmp		!	Enable program controlled contact splitting for distributed memory parallel run
dmpoption,emat,no             ! Don't combine emat file for DANSYS
dmpoption,esav,no             ! Don't combine esav file for DANSYS
nldiag,cont,iter           ! print out contact info each equilibrium iteration
rescontrol,,none                 ! Do not keep any restart files
/com,****************************************************
/com,******************* SOLVE FOR LS 1 OF 1 ****************
esel,s,type,,2
nsle
sfe,all,1,pres,1,0.
sfe,all,2,pres,1,0.
sfe,all,3,pres,1,-29430.0000000022
nsel,all
esel,all
/nopr
/gopr
nsub,1,1,1
time,1.
outres,erase
outres,all,none
outres,nsol,all,
outres,rsol,all
outres,eangl,all
outres,etmp,all
outres,veng,all
outres,strs,all,
outres,epel,all,
outres,eppl,all,
outres,cont,all,
! *********** WB SOLVE COMMAND ***********
! check interactive state
*get,ANSINTER_,active,,int
*if,ANSINTER_,ne,0,then
/eof
*endif
solve
/com *************** Write FE CONNECTORS ********* 
CEWRITE,file,ce,,INTE
/com,****************************************************
/com,*************** FINISHED SOLVE FOR LS 1 *************
fini
*get,_wallasol,active,,time,wall
/nopr
*get,_numnode,node,0,count
*get,_numelem,elem,0,count
*get, _MAXELEMNUM, elem, 0, NUM, MAX
*get, _MAXNODENUM, node, 0, NUM, MAX,,,INTERNAL
*get, _MAXELEMTYPE, etyp, 0, NUM, MAX
*get, _MAXREALCONST, rcon, 0, NUM, MAX
*get,_NSOLTHREADS,active,0,ntfs
*get,_NSOLPROCESSES,active,0,npfs
/gopr
/post1
xmlo,ENCODING,ISO-8859-1
xmlo,parm
/xml,parm,xml
fini
/gopr
*get,_walldone,active,,time,wall
_preptime=(_wallbsol-_wallstrt)*3600
_solvtime=(_wallasol-_wallbsol)*3600
_posttime=(_walldone-_wallasol)*3600
_totaltim=(_walldone-_wallstrt)*3600
*get,_dlbratio,active,0,solu,dlbr
*get,_combtime,active,0,solu,comb
*get,_ssmode,active,0,solu,ssmm
*get,_ndofs,active,0,solu,ndof
*get,_sol_end_time,active,0,set,time
*if,_sol_end_time,eq,1.000000,then
/fclean				!clean distributed files
*endif
/com,--- Total number of nodes = %_numnode%
/com,--- Total number of elements = %_numelem%
/com,--- Element load balance ratio = %_dlbratio%
/com,--- Time to combine distributed files = %_combtime%
/com,--- Sparse memory mode = %_ssmode%
/com,--- Number of DOF = %_ndofs%
/wb,file,end               ! done with WB generated input
